main_glm.glm
object transformer {
	name xfmr_652_A_1;
	phases AS;
	from meter_652_A;
	to trip_node_652_A_1;
	configuration AS100_config;
}
object triplex_node {
	name trip_node_652_A_1;
	phases AS;
	nominal_voltage 120;
}
object triplex_line {
	name trip_line_652_A_1;
	from trip_node_652_A_1;
	to house_meter_1;
	phases AS;
	length 10;
	configuration triplex_line_configuration_1;
}

object meter {
	name house_meter_1;
	phases AS;
	nominal_voltage 120;
}
object triplex_line {
	name trip_line_652_A_h_1;
	from house_meter_1;
	to trip_load_652_A_h_1;
	phases AS;
	length 10;
	configuration triplex_line_configuration_1;
}

object triplex_line {
	name trip_line_652_A_L_1;
	from house_meter_1;
	to trip_load_652_A_L_1;
	phases AS;
	length 10;
	configuration triplex_line_configuration_1;
}

object triplex_line {
	name trip_line_652_A_2;
	from trip_node_652_A_1;
	to house_meter_2;
	phases AS;
	length 10;
	configuration triplex_line_configuration_1;
}

object meter {
	name house_meter_2;
	phases AS;
	nominal_voltage 120;
}
object triplex_line {
	name trip_line_652_A_h_2;
	from house_meter_2;
	to trip_load_652_A_h_2;
	phases AS;
	length 10;
	configuration triplex_line_configuration_1;
}

object triplex_line {
	name trip_line_652_A_L_2;
	from house_meter_2;
	to trip_load_652_A_L_2;
	phases AS;
	length 10;
	configuration triplex_line_configuration_1;
}

object triplex_line {
	name trip_line_652_A_3;
	from trip_node_652_A_1;
	to house_meter_3;
	phases AS;
	length 10;
	configuration triplex_line_configuration_1;
}

object meter {
	name house_meter_3;
	phases AS;
	nominal_voltage 120;
}
object triplex_line {
	name trip_line_652_A_h_3;
	from house_meter_3;
	to trip_load_652_A_h_3;
	phases AS;
	length 10;
	configuration triplex_line_configuration_1;
}

object triplex_line {
	name trip_line_652_A_L_3;
	from house_meter_3;
	to trip_load_652_A_L_3;
	phases AS;
	length 10;
	configuration triplex_line_configuration_1;
}

object triplex_line {
	name trip_line_652_A_4;
	from trip_node_652_A_1;
	to house_meter_4;
	phases AS;
	length 10;
	configuration triplex_line_configuration_1;
}

object meter {
	name house_meter_4;
	phases AS;
	nominal_voltage 120;
}
object triplex_line {
	name trip_line_652_A_h_4;
	from house_meter_4;
	to trip_load_652_A_h_4;
	phases AS;
	length 10;
	configuration triplex_line_configuration_1;
}

object triplex_line {
	name trip_line_652_A_L_4;
	from house_meter_4;
	to trip_load_652_A_L_4;
	phases AS;
	length 10;
	configuration triplex_line_configuration_1;
}

object triplex_line {
	name trip_line_652_A_5;
	from trip_node_652_A_1;
	to house_meter_5;
	phases AS;
	length 10;
	configuration triplex_line_configuration_1;
}

object meter {
	name house_meter_5;
	phases AS;
	nominal_voltage 120;
}
object triplex_line {
	name trip_line_652_A_h_5;
	from house_meter_5;
	to trip_load_652_A_h_5;
	phases AS;
	length 10;
	configuration triplex_line_configuration_1;
}

object triplex_line {
	name trip_line_652_A_L_5;
	from house_meter_5;
	to trip_load_652_A_L_5;
	phases AS;
	length 10;
	configuration triplex_line_configuration_1;
}

object triplex_line {
	name trip_line_652_A_6;
	from trip_node_652_A_1;
	to house_meter_6;
	phases AS;
	length 10;
	configuration triplex_line_configuration_1;
}

object meter {
	name house_meter_6;
	phases AS;
	nominal_voltage 120;
}
object triplex_line {
	name trip_line_652_A_h_6;
	from house_meter_6;
	to trip_load_652_A_h_6;
	phases AS;
	length 10;
	configuration triplex_line_configuration_1;
}

object triplex_line {
	name trip_line_652_A_L_6;
	from house_meter_6;
	to trip_load_652_A_L_6;
	phases AS;
	length 10;
	configuration triplex_line_configuration_1;
}

object triplex_line {
	name trip_line_652_A_7;
	from trip_node_652_A_1;
	to house_meter_7;
	phases AS;
	length 10;
	configuration triplex_line_configuration_1;
}

object meter {
	name house_meter_7;
	phases AS;
	nominal_voltage 120;
}
object triplex_line {
	name trip_line_652_A_h_7;
	from house_meter_7;
	to trip_load_652_A_h_7;
	phases AS;
	length 10;
	configuration triplex_line_configuration_1;
}

object triplex_line {
	name trip_line_652_A_L_7;
	from house_meter_7;
	to trip_load_652_A_L_7;
	phases AS;
	length 10;
	configuration triplex_line_configuration_1;
}

object triplex_line {
	name trip_line_652_A_8;
	from trip_node_652_A_1;
	to house_meter_8;
	phases AS;
	length 10;
	configuration triplex_line_configuration_1;
}

object meter {
	name house_meter_8;
	phases AS;
	nominal_voltage 120;
}
object triplex_line {
	name trip_line_652_A_h_8;
	from house_meter_8;
	to trip_load_652_A_h_8;
	phases AS;
	length 10;
	configuration triplex_line_configuration_1;
}

object triplex_line {
	name trip_line_652_A_L_8;
	from house_meter_8;
	to trip_load_652_A_L_8;
	phases AS;
	length 10;
	configuration triplex_line_configuration_1;
}

object transformer {
	name xfmr_652_A_2;
	phases AS;
	from meter_652_A;
	to trip_node_652_A_2;
	configuration AS100_config;
}
object triplex_node {
	name trip_node_652_A_2;
	phases AS;
	nominal_voltage 120;
}
object triplex_line {
	name trip_line_652_A_9;
	from trip_node_652_A_2;
	to house_meter_9;
	phases AS;
	length 10;
	configuration triplex_line_configuration_1;
}

object meter {
	name house_meter_9;
	phases AS;
	nominal_voltage 120;
}
object triplex_line {
	name trip_line_652_A_h_9;
	from house_meter_9;
	to trip_load_652_A_h_9;
	phases AS;
	length 10;
	configuration triplex_line_configuration_1;
}

object triplex_line {
	name trip_line_652_A_L_9;
	from house_meter_9;
	to trip_load_652_A_L_9;
	phases AS;
	length 10;
	configuration triplex_line_configuration_1;
}

object triplex_line {
	name trip_line_652_A_10;
	from trip_node_652_A_2;
	to house_meter_10;
	phases AS;
	length 10;
	configuration triplex_line_configuration_1;
}

object meter {
	name house_meter_10;
	phases AS;
	nominal_voltage 120;
}
object triplex_line {
	name trip_line_652_A_h_10;
	from house_meter_10;
	to trip_load_652_A_h_10;
	phases AS;
	length 10;
	configuration triplex_line_configuration_1;
}

object triplex_line {
	name trip_line_652_A_L_10;
	from house_meter_10;
	to trip_load_652_A_L_10;
	phases AS;
	length 10;
	configuration triplex_line_configuration_1;
}

object triplex_line {
	name trip_line_652_A_11;
	from trip_node_652_A_2;
	to house_meter_11;
	phases AS;
	length 10;
	configuration triplex_line_configuration_1;
}

object meter {
	name house_meter_11;
	phases AS;
	nominal_voltage 120;
}
object triplex_line {
	name trip_line_652_A_h_11;
	from house_meter_11;
	to trip_load_652_A_h_11;
	phases AS;
	length 10;
	configuration triplex_line_configuration_1;
}

object triplex_line {
	name trip_line_652_A_L_11;
	from house_meter_11;
	to trip_load_652_A_L_11;
	phases AS;
	length 10;
	configuration triplex_line_configuration_1;
}

object triplex_line {
	name trip_line_652_A_12;
	from trip_node_652_A_2;
	to house_meter_12;
	phases AS;
	length 10;
	configuration triplex_line_configuration_1;
}

object meter {
	name house_meter_12;
	phases AS;
	nominal_voltage 120;
}
object triplex_line {
	name trip_line_652_A_h_12;
	from house_meter_12;
	to trip_load_652_A_h_12;
	phases AS;
	length 10;
	configuration triplex_line_configuration_1;
}

object triplex_line {
	name trip_line_652_A_L_12;
	from house_meter_12;
	to trip_load_652_A_L_12;
	phases AS;
	length 10;
	configuration triplex_line_configuration_1;
}

object triplex_line {
	name trip_line_652_A_13;
	from trip_node_652_A_2;
	to house_meter_13;
	phases AS;
	length 10;
	configuration triplex_line_configuration_1;
}

object meter {
	name house_meter_13;
	phases AS;
	nominal_voltage 120;
}
object triplex_line {
	name trip_line_652_A_h_13;
	from house_meter_13;
	to trip_load_652_A_h_13;
	phases AS;
	length 10;
	configuration triplex_line_configuration_1;
}

object triplex_line {
	name trip_line_652_A_L_13;
	from house_meter_13;
	to trip_load_652_A_L_13;
	phases AS;
	length 10;
	configuration triplex_line_configuration_1;
}

object triplex_line {
	name trip_line_652_A_14;
	from trip_node_652_A_2;
	to house_meter_14;
	phases AS;
	length 10;
	configuration triplex_line_configuration_1;
}

object meter {
	name house_meter_14;
	phases AS;
	nominal_voltage 120;
}
object triplex_line {
	name trip_line_652_A_h_14;
	from house_meter_14;
	to trip_load_652_A_h_14;
	phases AS;
	length 10;
	configuration triplex_line_configuration_1;
}

object triplex_line {
	name trip_line_652_A_L_14;
	from house_meter_14;
	to trip_load_652_A_L_14;
	phases AS;
	length 10;
	configuration triplex_line_configuration_1;
}

object triplex_line {
	name trip_line_652_A_15;
	from trip_node_652_A_2;
	to house_meter_15;
	phases AS;
	length 10;
	configuration triplex_line_configuration_1;
}

object meter {
	name house_meter_15;
	phases AS;
	nominal_voltage 120;
}
object triplex_line {
	name trip_line_652_A_h_15;
	from house_meter_15;
	to trip_load_652_A_h_15;
	phases AS;
	length 10;
	configuration triplex_line_configuration_1;
}

object triplex_line {
	name trip_line_652_A_L_15;
	from house_meter_15;
	to trip_load_652_A_L_15;
	phases AS;
	length 10;
	configuration triplex_line_configuration_1;
}

object triplex_line {
	name trip_line_652_A_16;
	from trip_node_652_A_2;
	to house_meter_16;
	phases AS;
	length 10;
	configuration triplex_line_configuration_1;
}

object meter {
	name house_meter_16;
	phases AS;
	nominal_voltage 120;
}
object triplex_line {
	name trip_line_652_A_h_16;
	from house_meter_16;
	to trip_load_652_A_h_16;
	phases AS;
	length 10;
	configuration triplex_line_configuration_1;
}

object triplex_line {
	name trip_line_652_A_L_16;
	from house_meter_16;
	to trip_load_652_A_L_16;
	phases AS;
	length 10;
	configuration triplex_line_configuration_1;
}

object transformer {
	name xfmr_652_A_3;
	phases AS;
	from meter_652_A;
	to trip_node_652_A_3;
	configuration AS100_config;
}
object triplex_node {
	name trip_node_652_A_3;
	phases AS;
	nominal_voltage 120;
}
object triplex_line {
	name trip_line_652_A_17;
	from trip_node_652_A_3;
	to house_meter_17;
	phases AS;
	length 10;
	configuration triplex_line_configuration_1;
}

object meter {
	name house_meter_17;
	phases AS;
	nominal_voltage 120;
}
object triplex_line {
	name trip_line_652_A_h_17;
	from house_meter_17;
	to trip_load_652_A_h_17;
	phases AS;
	length 10;
	configuration triplex_line_configuration_1;
}

object triplex_line {
	name trip_line_652_A_L_17;
	from house_meter_17;
	to trip_load_652_A_L_17;
	phases AS;
	length 10;
	configuration triplex_line_configuration_1;
}

object triplex_line {
	name trip_line_652_A_18;
	from trip_node_652_A_3;
	to house_meter_18;
	phases AS;
	length 10;
	configuration triplex_line_configuration_1;
}

object meter {
	name house_meter_18;
	phases AS;
	nominal_voltage 120;
}
object triplex_line {
	name trip_line_652_A_h_18;
	from house_meter_18;
	to trip_load_652_A_h_18;
	phases AS;
	length 10;
	configuration triplex_line_configuration_1;
}

object triplex_line {
	name trip_line_652_A_L_18;
	from house_meter_18;
	to trip_load_652_A_L_18;
	phases AS;
	length 10;
	configuration triplex_line_configuration_1;
}

object triplex_line {
	name trip_line_652_A_19;
	from trip_node_652_A_3;
	to house_meter_19;
	phases AS;
	length 10;
	configuration triplex_line_configuration_1;
}

object meter {
	name house_meter_19;
	phases AS;
	nominal_voltage 120;
}
object triplex_line {
	name trip_line_652_A_h_19;
	from house_meter_19;
	to trip_load_652_A_h_19;
	phases AS;
	length 10;
	configuration triplex_line_configuration_1;
}

object triplex_line {
	name trip_line_652_A_L_19;
	from house_meter_19;
	to trip_load_652_A_L_19;
	phases AS;
	length 10;
	configuration triplex_line_configuration_1;
}

object triplex_line {
	name trip_line_652_A_20;
	from trip_node_652_A_3;
	to house_meter_20;
	phases AS;
	length 10;
	configuration triplex_line_configuration_1;
}

object meter {
	name house_meter_20;
	phases AS;
	nominal_voltage 120;
}
object triplex_line {
	name trip_line_652_A_h_20;
	from house_meter_20;
	to trip_load_652_A_h_20;
	phases AS;
	length 10;
	configuration triplex_line_configuration_1;
}

object triplex_line {
	name trip_line_652_A_L_20;
	from house_meter_20;
	to trip_load_652_A_L_20;
	phases AS;
	length 10;
	configuration triplex_line_configuration_1;
}

object triplex_line {
	name trip_line_652_A_21;
	from trip_node_652_A_3;
	to house_meter_21;
	phases AS;
	length 10;
	configuration triplex_line_configuration_1;
}

object meter {
	name house_meter_21;
	phases AS;
	nominal_voltage 120;
}
object triplex_line {
	name trip_line_652_A_h_21;
	from house_meter_21;
	to trip_load_652_A_h_21;
	phases AS;
	length 10;
	configuration triplex_line_configuration_1;
}

object triplex_line {
	name trip_line_652_A_L_21;
	from house_meter_21;
	to trip_load_652_A_L_21;
	phases AS;
	length 10;
	configuration triplex_line_configuration_1;
}

object triplex_line {
	name trip_line_652_A_22;
	from trip_node_652_A_3;
	to house_meter_22;
	phases AS;
	length 10;
	configuration triplex_line_configuration_1;
}

object meter {
	name house_meter_22;
	phases AS;
	nominal_voltage 120;
}
object triplex_line {
	name trip_line_652_A_h_22;
	from house_meter_22;
	to trip_load_652_A_h_22;
	phases AS;
	length 10;
	configuration triplex_line_configuration_1;
}

object triplex_line {
	name trip_line_652_A_L_22;
	from house_meter_22;
	to trip_load_652_A_L_22;
	phases AS;
	length 10;
	configuration triplex_line_configuration_1;
}

object triplex_line {
	name trip_line_652_A_23;
	from trip_node_652_A_3;
	to house_meter_23;
	phases AS;
	length 10;
	configuration triplex_line_configuration_1;
}

object meter {
	name house_meter_23;
	phases AS;
	nominal_voltage 120;
}
object triplex_line {
	name trip_line_652_A_h_23;
	from house_meter_23;
	to trip_load_652_A_h_23;
	phases AS;
	length 10;
	configuration triplex_line_configuration_1;
}

object triplex_line {
	name trip_line_652_A_L_23;
	from house_meter_23;
	to trip_load_652_A_L_23;
	phases AS;
	length 10;
	configuration triplex_line_configuration_1;
}

object triplex_line {
	name trip_line_652_A_24;
	from trip_node_652_A_3;
	to house_meter_24;
	phases AS;
	length 10;
	configuration triplex_line_configuration_1;
}

object meter {
	name house_meter_24;
	phases AS;
	nominal_voltage 120;
}
object triplex_line {
	name trip_line_652_A_h_24;
	from house_meter_24;
	to trip_load_652_A_h_24;
	phases AS;
	length 10;
	configuration triplex_line_configuration_1;
}

object triplex_line {
	name trip_line_652_A_L_24;
	from house_meter_24;
	to trip_load_652_A_L_24;
	phases AS;
	length 10;
	configuration triplex_line_configuration_1;
}

object transformer {
	name xfmr_652_A_4;
	phases AS;
	from meter_652_A;
	to trip_node_652_A_4;
	configuration AS100_config;
}
object triplex_node {
	name trip_node_652_A_4;
	phases AS;
	nominal_voltage 120;
}
object triplex_line {
	name trip_line_652_A_25;
	from trip_node_652_A_4;
	to house_meter_25;
	phases AS;
	length 10;
	configuration triplex_line_configuration_1;
}

object meter {
	name house_meter_25;
	phases AS;
	nominal_voltage 120;
}
object triplex_line {
	name trip_line_652_A_h_25;
	from house_meter_25;
	to trip_load_652_A_h_25;
	phases AS;
	length 10;
	configuration triplex_line_configuration_1;
}

object triplex_line {
	name trip_line_652_A_L_25;
	from house_meter_25;
	to trip_load_652_A_L_25;
	phases AS;
	length 10;
	configuration triplex_line_configuration_1;
}

object triplex_line {
	name trip_line_652_A_26;
	from trip_node_652_A_4;
	to house_meter_26;
	phases AS;
	length 10;
	configuration triplex_line_configuration_1;
}

object meter {
	name house_meter_26;
	phases AS;
	nominal_voltage 120;
}
object triplex_line {
	name trip_line_652_A_h_26;
	from house_meter_26;
	to trip_load_652_A_h_26;
	phases AS;
	length 10;
	configuration triplex_line_configuration_1;
}

object triplex_line {
	name trip_line_652_A_L_26;
	from house_meter_26;
	to trip_load_652_A_L_26;
	phases AS;
	length 10;
	configuration triplex_line_configuration_1;
}

object triplex_line {
	name trip_line_652_A_27;
	from trip_node_652_A_4;
	to house_meter_27;
	phases AS;
	length 10;
	configuration triplex_line_configuration_1;
}

object meter {
	name house_meter_27;
	phases AS;
	nominal_voltage 120;
}
object triplex_line {
	name trip_line_652_A_h_27;
	from house_meter_27;
	to trip_load_652_A_h_27;
	phases AS;
	length 10;
	configuration triplex_line_configuration_1;
}

object triplex_line {
	name trip_line_652_A_L_27;
	from house_meter_27;
	to trip_load_652_A_L_27;
	phases AS;
	length 10;
	configuration triplex_line_configuration_1;
}

object triplex_line {
	name trip_line_652_A_28;
	from trip_node_652_A_4;
	to house_meter_28;
	phases AS;
	length 10;
	configuration triplex_line_configuration_1;
}

object meter {
	name house_meter_28;
	phases AS;
	nominal_voltage 120;
}
object triplex_line {
	name trip_line_652_A_h_28;
	from house_meter_28;
	to trip_load_652_A_h_28;
	phases AS;
	length 10;
	configuration triplex_line_configuration_1;
}

object triplex_line {
	name trip_line_652_A_L_28;
	from house_meter_28;
	to trip_load_652_A_L_28;
	phases AS;
	length 10;
	configuration triplex_line_configuration_1;
}

object triplex_line {
	name trip_line_652_A_29;
	from trip_node_652_A_4;
	to house_meter_29;
	phases AS;
	length 10;
	configuration triplex_line_configuration_1;
}

object meter {
	name house_meter_29;
	phases AS;
	nominal_voltage 120;
}
object triplex_line {
	name trip_line_652_A_h_29;
	from house_meter_29;
	to trip_load_652_A_h_29;
	phases AS;
	length 10;
	configuration triplex_line_configuration_1;
}

object triplex_line {
	name trip_line_652_A_L_29;
	from house_meter_29;
	to trip_load_652_A_L_29;
	phases AS;
	length 10;
	configuration triplex_line_configuration_1;
}

object triplex_line {
	name trip_line_652_A_30;
	from trip_node_652_A_4;
	to house_meter_30;
	phases AS;
	length 10;
	configuration triplex_line_configuration_1;
}

object meter {
	name house_meter_30;
	phases AS;
	nominal_voltage 120;
}
object triplex_line {
	name trip_line_652_A_h_30;
	from house_meter_30;
	to trip_load_652_A_h_30;
	phases AS;
	length 10;
	configuration triplex_line_configuration_1;
}

object triplex_line {
	name trip_line_652_A_L_30;
	from house_meter_30;
	to trip_load_652_A_L_30;
	phases AS;
	length 10;
	configuration triplex_line_configuration_1;
}

object triplex_line {
	name trip_line_652_A_31;
	from trip_node_652_A_4;
	to house_meter_31;
	phases AS;
	length 10;
	configuration triplex_line_configuration_1;
}

object meter {
	name house_meter_31;
	phases AS;
	nominal_voltage 120;
}
object triplex_line {
	name trip_line_652_A_h_31;
	from house_meter_31;
	to trip_load_652_A_h_31;
	phases AS;
	length 10;
	configuration triplex_line_configuration_1;
}

object triplex_line {
	name trip_line_652_A_L_31;
	from house_meter_31;
	to trip_load_652_A_L_31;
	phases AS;
	length 10;
	configuration triplex_line_configuration_1;
}

object triplex_line {
	name trip_line_652_A_32;
	from trip_node_652_A_4;
	to house_meter_32;
	phases AS;
	length 10;
	configuration triplex_line_configuration_1;
}

object meter {
	name house_meter_32;
	phases AS;
	nominal_voltage 120;
}
object triplex_line {
	name trip_line_652_A_h_32;
	from house_meter_32;
	to trip_load_652_A_h_32;
	phases AS;
	length 10;
	configuration triplex_line_configuration_1;
}

object triplex_line {
	name trip_line_652_A_L_32;
	from house_meter_32;
	to trip_load_652_A_L_32;
	phases AS;
	length 10;
	configuration triplex_line_configuration_1;
}

object transformer {
	name xfmr_652_A_5;
	phases AS;
	from meter_652_A;
	to trip_node_652_A_5;
	configuration AS100_config;
}
object triplex_node {
	name trip_node_652_A_5;
	phases AS;
	nominal_voltage 120;
}
object triplex_line {
	name trip_line_652_A_33;
	from trip_node_652_A_5;
	to house_meter_33;
	phases AS;
	length 10;
	configuration triplex_line_configuration_1;
}

object meter {
	name house_meter_33;
	phases AS;
	nominal_voltage 120;
}
object triplex_line {
	name trip_line_652_A_h_33;
	from house_meter_33;
	to trip_load_652_A_h_33;
	phases AS;
	length 10;
	configuration triplex_line_configuration_1;
}

object triplex_line {
	name trip_line_652_A_L_33;
	from house_meter_33;
	to trip_load_652_A_L_33;
	phases AS;
	length 10;
	configuration triplex_line_configuration_1;
}

object triplex_line {
	name trip_line_652_A_34;
	from trip_node_652_A_5;
	to house_meter_34;
	phases AS;
	length 10;
	configuration triplex_line_configuration_1;
}

object meter {
	name house_meter_34;
	phases AS;
	nominal_voltage 120;
}
object triplex_line {
	name trip_line_652_A_h_34;
	from house_meter_34;
	to trip_load_652_A_h_34;
	phases AS;
	length 10;
	configuration triplex_line_configuration_1;
}

object triplex_line {
	name trip_line_652_A_L_34;
	from house_meter_34;
	to trip_load_652_A_L_34;
	phases AS;
	length 10;
	configuration triplex_line_configuration_1;
}

object triplex_line {
	name trip_line_652_A_35;
	from trip_node_652_A_5;
	to house_meter_35;
	phases AS;
	length 10;
	configuration triplex_line_configuration_1;
}

object meter {
	name house_meter_35;
	phases AS;
	nominal_voltage 120;
}
object triplex_line {
	name trip_line_652_A_h_35;
	from house_meter_35;
	to trip_load_652_A_h_35;
	phases AS;
	length 10;
	configuration triplex_line_configuration_1;
}

object triplex_line {
	name trip_line_652_A_L_35;
	from house_meter_35;
	to trip_load_652_A_L_35;
	phases AS;
	length 10;
	configuration triplex_line_configuration_1;
}

object triplex_line {
	name trip_line_652_A_36;
	from trip_node_652_A_5;
	to house_meter_36;
	phases AS;
	length 10;
	configuration triplex_line_configuration_1;
}

object meter {
	name house_meter_36;
	phases AS;
	nominal_voltage 120;
}
object triplex_line {
	name trip_line_652_A_h_36;
	from house_meter_36;
	to trip_load_652_A_h_36;
	phases AS;
	length 10;
	configuration triplex_line_configuration_1;
}

object triplex_line {
	name trip_line_652_A_L_36;
	from house_meter_36;
	to trip_load_652_A_L_36;
	phases AS;
	length 10;
	configuration triplex_line_configuration_1;
}

object triplex_line {
	name trip_line_652_A_37;
	from trip_node_652_A_5;
	to house_meter_37;
	phases AS;
	length 10;
	configuration triplex_line_configuration_1;
}

object meter {
	name house_meter_37;
	phases AS;
	nominal_voltage 120;
}
object triplex_line {
	name trip_line_652_A_h_37;
	from house_meter_37;
	to trip_load_652_A_h_37;
	phases AS;
	length 10;
	configuration triplex_line_configuration_1;
}

object triplex_line {
	name trip_line_652_A_L_37;
	from house_meter_37;
	to trip_load_652_A_L_37;
	phases AS;
	length 10;
	configuration triplex_line_configuration_1;
}

object triplex_line {
	name trip_line_652_A_38;
	from trip_node_652_A_5;
	to house_meter_38;
	phases AS;
	length 10;
	configuration triplex_line_configuration_1;
}

object meter {
	name house_meter_38;
	phases AS;
	nominal_voltage 120;
}
object triplex_line {
	name trip_line_652_A_h_38;
	from house_meter_38;
	to trip_load_652_A_h_38;
	phases AS;
	length 10;
	configuration triplex_line_configuration_1;
}

object triplex_line {
	name trip_line_652_A_L_38;
	from house_meter_38;
	to trip_load_652_A_L_38;
	phases AS;
	length 10;
	configuration triplex_line_configuration_1;
}

object triplex_line {
	name trip_line_652_A_39;
	from trip_node_652_A_5;
	to house_meter_39;
	phases AS;
	length 10;
	configuration triplex_line_configuration_1;
}

object meter {
	name house_meter_39;
	phases AS;
	nominal_voltage 120;
}
object triplex_line {
	name trip_line_652_A_h_39;
	from house_meter_39;
	to trip_load_652_A_h_39;
	phases AS;
	length 10;
	configuration triplex_line_configuration_1;
}

object triplex_line {
	name trip_line_652_A_L_39;
	from house_meter_39;
	to trip_load_652_A_L_39;
	phases AS;
	length 10;
	configuration triplex_line_configuration_1;
}

object triplex_line {
	name trip_line_652_A_40;
	from trip_node_652_A_5;
	to house_meter_40;
	phases AS;
	length 10;
	configuration triplex_line_configuration_1;
}

object meter {
	name house_meter_40;
	phases AS;
	nominal_voltage 120;
}
object triplex_line {
	name trip_line_652_A_h_40;
	from house_meter_40;
	to trip_load_652_A_h_40;
	phases AS;
	length 10;
	configuration triplex_line_configuration_1;
}

object triplex_line {
	name trip_line_652_A_L_40;
	from house_meter_40;
	to trip_load_652_A_L_40;
	phases AS;
	length 10;
	configuration triplex_line_configuration_1;
}

